71481120
  PyMOL2.4          3D                             0

 33 34  0  0  1  0  0  0  0  0999 V2000
    4.8768    0.3520    2.1246 S   0  0  0  0  0  0  0  0  0  0  0  0
    4.7881    1.8122   -0.1273 O   0  0  0  0  0  0  0  0  0  0  0  0
    3.3452   -2.9562    0.7721 O   0  0  0  0  0  0  0  0  0  0  0  0
    5.4831    1.7030    2.8073 O   0  0  0  0  0  0  0  0  0  0  0  0
    0.4895    0.8417    1.4721 O   0  0  0  0  0  0  0  0  0  0  0  0
    5.9685   -0.3980    1.5387 O   0  0  0  0  0  0  0  0  0  0  0  0
    3.9449   -0.2526    3.0546 O   0  0  0  0  0  0  0  0  0  0  0  0
   -3.4480    0.0218   -0.0864 O   0  0  0  0  0  0  0  0  0  0  0  0
   -1.7397   -0.4548   -1.5457 O   0  0  0  0  0  0  0  0  0  0  0  0
    1.8306    0.9194   -0.4220 N   0  0  0  0  0  0  0  0  0  0  0  0
    3.2167   -4.1718   -1.2245 N   0  0  0  0  0  0  0  0  0  0  0  0
   -1.6589    1.3837   -0.1315 N   0  0  0  0  0  0  0  0  0  0  0  0
    2.9147   -1.8574   -1.3695 C   0  0  1  0  0  0  0  0  0  0  0  0
    3.6678   -0.5980   -0.9887 C   0  0  0  0  0  0  0  0  0  0  0  0
    2.9639    0.2041    0.1189 C   0  0  1  0  0  0  0  0  0  0  0  0
    3.3240   -2.4190   -2.7338 C   0  0  0  0  0  0  0  0  0  0  0  0
    2.9921   -3.8940   -2.6162 C   0  0  0  0  0  0  0  0  0  0  0  0
    3.9457    1.1624    0.8202 C   0  0  1  0  0  0  0  0  0  0  0  0
    3.2007   -3.0221   -0.4387 C   0  0  0  0  0  0  0  0  0  0  0  0
   -0.3754    1.9006   -0.5305 C   0  0  2  0  0  0  0  0  0  0  0  0
    0.6780    1.1809    0.3057 C   0  0  0  0  0  0  0  0  0  0  0  0
   -0.2709    3.4172   -0.3251 C   0  0  0  0  0  0  0  0  0  0  0  0
   -1.3232    4.2471   -1.0885 C   0  0  0  0  0  0  0  0  0  0  0  0
   -1.2040    5.7444   -0.8016 C   0  0  0  0  0  0  0  0  0  0  0  0
   -1.1848    3.9983   -2.5929 C   0  0  0  0  0  0  0  0  0  0  0  0
   -2.2344    0.2497   -0.6717 C   0  0  0  0  0  0  0  0  0  0  0  0
   -4.1601   -1.1294   -0.5538 C   0  0  0  0  0  0  0  0  0  0  0  0
   -5.4617   -1.2339    0.1855 C   0  0  0  0  0  0  0  0  0  0  0  0
   -5.5319   -1.9573    1.3760 C   0  0  0  0  0  0  0  0  0  0  0  0
   -6.6016   -0.6074   -0.3182 C   0  0  0  0  0  0  0  0  0  0  0  0
   -6.7420   -2.0544    2.0629 C   0  0  0  0  0  0  0  0  0  0  0  0
   -7.8118   -0.7044    0.3687 C   0  0  0  0  0  0  0  0  0  0  0  0
   -7.8819   -1.4280    1.5593 C   0  0  0  0  0  0  0  0  0  0  0  0
  1  4  1  0  0  0  0
  1  6  2  0  0  0  0
  1  7  2  0  0  0  0
  1 18  1  0  0  0  0
  2 18  1  0  0  0  0
  3 19  2  0  0  0  0
  5 21  2  0  0  0  0
  8 26  1  0  0  0  0
  8 27  1  0  0  0  0
  9 26  2  0  0  0  0
 10 15  1  0  0  0  0
 10 21  1  0  0  0  0
 11 17  1  0  0  0  0
 11 19  1  0  0  0  0
 12 20  1  0  0  0  0
 12 26  1  0  0  0  0
 13 14  1  0  0  0  0
 13 16  1  0  0  0  0
 13 19  1  0  0  0  0
 14 15  1  0  0  0  0
 15 18  1  0  0  0  0
 16 17  1  0  0  0  0
 20 21  1  0  0  0  0
 20 22  1  0  0  0  0
 22 23  1  0  0  0  0
 23 24  1  0  0  0  0
 23 25  1  0  0  0  0
 27 28  1  0  0  0  0
 28 29  2  0  0  0  0
 28 30  1  0  0  0  0
 29 31  1  0  0  0  0
 30 32  2  0  0  0  0
 31 33  2  0  0  0  0
 32 33  1  0  0  0  0
M  END
$$$$
