MOL004798
  PyMOL2.4          3D                             0

 22 24  0  0  0  0  0  0  0  0999 V2000
    0.2917    0.1694   -0.0668 C   0  0  0  0  0  0  0  0  0  0  0  0
    1.3927    0.0517    0.8015 C   0  0  0  0  0  0  0  0  0  0  0  0
    0.3801    1.0266   -1.2789 C   0  0  0  0  0  0  0  0  0  0  0  0
    1.2869   -0.8024    2.0087 C   0  0  0  0  0  0  0  0  0  0  0  0
   -0.4428    2.2559   -1.3694 C   0  0  0  0  0  0  0  0  0  0  0  0
    1.2386    0.6805   -2.3406 C   0  0  0  0  0  0  0  0  0  0  0  0
   -1.0480   -1.3859    1.3495 C   0  0  0  0  0  0  0  0  0  0  0  0
    0.0984   -1.5002    2.2780 C   0  0  0  0  0  0  0  0  0  0  0  0
   -0.3683    3.0806   -2.4990 C   0  0  0  0  0  0  0  0  0  0  0  0
    1.3179    1.5464   -3.5484 C   0  0  0  0  0  0  0  0  0  0  0  0
   -2.2838   -2.1524    1.6350 C   0  0  0  0  0  0  0  0  0  0  0  0
   -0.0184   -2.3491    3.4840 C   0  0  0  0  0  0  0  0  0  0  0  0
    0.5376    2.7239   -3.6206 C   0  0  0  0  0  0  0  0  0  0  0  0
   -2.3537   -2.9805    2.7785 C   0  0  0  0  0  0  0  0  0  0  0  0
   -1.1996   -3.0798    3.7052 C   0  0  0  0  0  0  0  0  0  0  0  0
   -0.9248   -0.5362    0.2019 C   0  0  0  0  0  0  0  0  0  0  0  0
    2.5905    0.7187    0.5465 O   0  0  0  0  0  0  0  0  0  0  0  0
   -1.1512    4.2323   -2.5609 O   0  0  0  0  0  0  0  0  0  0  0  0
    2.1515    1.2187   -4.6209 O   0  0  0  0  0  0  0  0  0  0  0  0
    1.0389   -2.4120    4.3889 O   0  0  0  0  0  0  0  0  0  0  0  0
    0.6042    3.5598   -4.7394 O   0  0  0  0  0  0  0  0  0  0  0  0
   -3.5036   -3.7149    3.0718 O   0  0  0  0  0  0  0  0  0  0  0  0
  1  2  2  0  0  0  0
  1  3  1  0  0  0  0
  1 16  1  0  0  0  0
  2  4  1  0  0  0  0
  2 17  1  0  0  0  0
  3  5  1  0  0  0  0
  3  6  2  0  0  0  0
  4  8  2  0  0  0  0
  5  9  2  0  0  0  0
  6 10  1  0  0  0  0
  7  8  1  0  0  0  0
  7 11  1  0  0  0  0
  8 12  1  0  0  0  0
  9 13  1  0  0  0  0
  9 18  1  0  0  0  0
 10 13  2  0  0  0  0
 10 19  1  0  0  0  0
 11 14  2  0  0  0  0
 12 15  2  0  0  0  0
 12 20  1  0  0  0  0
 13 21  1  0  0  0  0
 14 15  1  0  0  0  0
 14 22  1  0  0  0  0
  7 16  2  0  0  0  0
M  END
$$$$
